Version 4
SHEET 1 1452 680
WIRE -432 -288 -480 -288
WIRE 48 -288 -432 -288
WIRE 256 -288 48 -288
WIRE 512 -288 256 -288
WIRE 256 -256 256 -288
WIRE 512 -256 512 -288
WIRE -304 -224 -336 -224
WIRE -112 -224 -144 -224
WIRE -480 -160 -480 -288
WIRE -304 -160 -304 -224
WIRE -144 -160 -144 -224
WIRE 256 -144 256 -176
WIRE 320 -144 256 -144
WIRE 512 -144 512 -176
WIRE 512 -144 432 -144
WIRE 256 -128 256 -144
WIRE 512 -128 512 -144
WIRE 48 -96 48 -288
WIRE 256 -80 256 -128
WIRE 512 -80 512 -128
WIRE -304 -32 -304 -80
WIRE -224 -32 -304 -32
WIRE -144 -32 -144 -80
WIRE -144 -32 -224 -32
WIRE 320 -32 320 -80
WIRE 320 -32 256 -32
WIRE 384 -32 320 -32
WIRE 432 -32 432 -80
WIRE 432 -32 384 -32
WIRE 512 -32 432 -32
WIRE 208 0 176 0
WIRE 592 0 560 0
WIRE -224 16 -224 -32
WIRE 384 16 384 -32
WIRE -224 48 -224 16
WIRE 48 48 48 -16
WIRE 144 48 48 48
WIRE 48 80 48 48
WIRE 256 96 256 16
WIRE 384 96 256 96
WIRE 512 96 512 16
WIRE 512 96 384 96
WIRE 432 144 384 144
WIRE 144 176 144 48
WIRE 304 176 144 176
WIRE 336 176 304 176
WIRE -480 256 -480 -80
WIRE -224 256 -224 128
WIRE -224 256 -480 256
WIRE 48 256 48 160
WIRE 48 256 -224 256
WIRE 384 256 384 192
WIRE 384 256 48 256
WIRE 432 256 432 144
WIRE 432 256 384 256
WIRE -480 272 -480 256
FLAG -480 272 0
FLAG -432 -288 vdd
FLAG -224 16 vcm
FLAG -336 -224 vin_p
FLAG -112 -224 vin_n
FLAG 176 0 vin_p
FLAG 592 0 vin_n
FLAG 384 96 vs
FLAG 384 16 0
FLAG 256 -128 vout_n
FLAG 512 -128 vout_p
FLAG 304 176 vbias
SYMBOL EuroSYM\\voltage3 -480 -176 R0
WINDOW 0 24 16 Left 2
WINDOW 3 24 104 Left 2
WINDOW 123 0 0 Left 0
WINDOW 39 0 0 Left 0
SYMATTR InstName Vdd
SYMATTR Value 3.3
SYMBOL res 240 -272 R0
SYMATTR InstName RL1
SYMATTR Value 5k
SYMBOL nmos4 208 -80 R0
SYMATTR InstName M1
SYMATTR Value nmos_3p3
SYMATTR Value2 l=0.23u w=20u
SYMBOL EuroSYM\\voltage3 -224 32 R0
WINDOW 0 24 16 Left 2
WINDOW 3 24 104 Left 2
WINDOW 123 0 0 Left 0
WINDOW 39 0 0 Left 0
SYMATTR InstName VCM
SYMATTR Value 1.65
SYMBOL EuroSYM\\voltage3 -304 -176 R0
WINDOW 0 24 16 Left 2
WINDOW 3 24 104 Left 2
WINDOW 123 195 47 Left 2
WINDOW 39 0 0 Left 0
SYMATTR InstName VIN_P
SYMATTR Value 0
SYMATTR Value2 AC 0.5
SYMBOL EuroSYM\\voltage3 -144 -176 M0
WINDOW 0 -104 13 Left 2
WINDOW 3 24 104 Left 2
WINDOW 123 24 44 Left 2
WINDOW 39 0 0 Left 0
SYMATTR InstName VIN_N
SYMATTR Value 0
SYMATTR Value2 AC -0.5
SYMBOL nmos4 560 -80 M0
SYMATTR InstName M2
SYMATTR Value nmos_3p3
SYMATTR Value2 l=0.23u w=20u
SYMBOL res 496 -272 R0
SYMATTR InstName RL2
SYMATTR Value 5k
SYMBOL nmos4 336 96 R0
SYMATTR InstName M3
SYMATTR Value nmos_3p3
SYMATTR Value2 l=0.3u w=30u
SYMBOL res 32 -112 R0
SYMATTR InstName R1
SYMATTR Value 20k
SYMBOL res 32 64 R0
SYMATTR InstName R2
SYMATTR Value 7k
SYMBOL cap 304 -144 R0
SYMATTR InstName CL1
SYMATTR Value 1p
SYMBOL cap 416 -144 R0
SYMATTR InstName CL2
SYMATTR Value 1p
TEXT -824 -352 Left 2 !.lib 'GF180nm_sm141064_simplified.lib'
TEXT -816 -304 Left 2 !.op
TEXT -816 -200 Left 2 !.ac dec 100 1 1G
