Version 4
SHEET 1 1800 680
WIRE -592 -320 -640 -320
WIRE -464 -320 -512 -320
WIRE -352 -320 -464 -320
WIRE -320 -320 -352 -320
WIRE -144 -320 -320 -320
WIRE 128 -320 -144 -320
WIRE 320 -320 128 -320
WIRE 576 -320 320 -320
WIRE 608 -320 576 -320
WIRE 784 -320 608 -320
WIRE 816 -320 784 -320
WIRE 1008 -320 816 -320
WIRE 1040 -320 1008 -320
WIRE 224 -288 112 -288
WIRE 336 -288 224 -288
WIRE 0 -272 -48 -272
WIRE 64 -272 0 -272
WIRE 432 -272 384 -272
WIRE -144 -256 -144 -320
WIRE 128 -240 128 -320
WIRE 128 -240 112 -240
WIRE 320 -240 320 -320
WIRE 336 -240 320 -240
WIRE -48 -224 -48 -272
WIRE 432 -224 432 -272
WIRE -640 -192 -640 -320
WIRE -512 -192 -512 -320
WIRE 112 -192 112 -208
WIRE 336 -192 336 -208
WIRE 576 -160 576 -320
WIRE 784 -160 784 -320
WIRE 1008 -160 1008 -320
WIRE -320 -144 -320 -320
WIRE -224 -128 -272 -128
WIRE -144 -128 -144 -176
WIRE -144 -128 -224 -128
WIRE -48 -112 -48 -144
WIRE 432 -112 432 -144
WIRE 608 -112 608 -320
WIRE 608 -112 576 -112
WIRE 816 -112 816 -320
WIRE 816 -112 784 -112
WIRE 1040 -112 1040 -320
WIRE 1040 -112 1008 -112
WIRE -352 -96 -352 -320
WIRE -320 -96 -352 -96
WIRE 112 -96 112 -192
WIRE 336 -96 336 -192
WIRE 224 -64 224 -288
WIRE 224 -64 -144 -64
WIRE 576 -64 576 -80
WIRE 784 -64 784 -80
WIRE 1008 -64 1008 -80
WIRE 336 -48 336 -96
WIRE 528 -48 528 -144
WIRE 528 -48 336 -48
WIRE 576 -48 576 -64
WIRE 656 -48 576 -48
WIRE 736 -48 736 -144
WIRE 736 -48 656 -48
WIRE 784 -48 784 -64
WIRE 880 -48 784 -48
WIRE 960 -48 960 -144
WIRE 960 -48 880 -48
WIRE 1008 -48 1008 -64
WIRE 1136 -48 1008 -48
WIRE 1168 -48 1136 -48
WIRE -320 -16 -320 -48
WIRE -256 -16 -320 -16
WIRE 112 -16 112 -96
WIRE 192 -16 112 -16
WIRE -320 0 -320 -16
WIRE -144 0 -144 -64
WIRE 112 0 112 -16
WIRE 336 0 336 -48
WIRE 576 0 576 -48
WIRE 784 0 784 -48
WIRE 1008 0 1008 -48
WIRE 1168 16 1168 -48
WIRE -320 48 -352 48
WIRE -112 48 -144 48
WIRE 112 48 80 48
WIRE 368 48 336 48
WIRE 608 48 576 48
WIRE 816 48 784 48
WIRE 1040 48 1008 48
WIRE -256 80 -256 -16
WIRE -256 80 -272 80
WIRE -224 80 -256 80
WIRE -192 80 -224 80
WIRE 192 80 192 -16
WIRE 192 80 160 80
WIRE 288 80 192 80
WIRE 528 80 528 -48
WIRE 736 80 736 -48
WIRE 960 80 960 -48
WIRE -352 224 -352 48
WIRE -320 224 -320 96
WIRE -320 224 -352 224
WIRE -144 224 -144 96
WIRE -144 224 -320 224
WIRE -112 224 -112 48
WIRE -112 224 -144 224
WIRE -48 224 -112 224
WIRE 80 224 80 48
WIRE 80 224 -48 224
WIRE 112 224 112 96
WIRE 112 224 80 224
WIRE 336 224 336 96
WIRE 336 224 112 224
WIRE 368 224 368 48
WIRE 368 224 336 224
WIRE 576 224 576 96
WIRE 576 224 368 224
WIRE 608 224 608 48
WIRE 608 224 576 224
WIRE 784 224 784 96
WIRE 784 224 608 224
WIRE 816 224 816 48
WIRE 816 224 784 224
WIRE 1008 224 1008 96
WIRE 1008 224 816 224
WIRE 1040 224 1040 48
WIRE 1040 224 1008 224
WIRE -640 240 -640 -112
WIRE -512 240 -512 -112
WIRE 1168 240 1168 80
FLAG -512 240 0
FLAG -464 -320 vdd
FLAG -640 240 0
FLAG -592 -320 vss
FLAG 1136 -48 vout
FLAG 1168 240 0
FLAG 0 -272 vinp
FLAG 432 -272 vinn
FLAG 112 -96 vout_diff
FLAG 336 -96 vout_single
FLAG 224 -288 vcm_tail
FLAG -48 224 vss
FLAG -224 80 vbias
FLAG -224 -128 vdd_half
FLAG 656 -48 vinv1
FLAG 880 -48 vinv2
FLAG -48 -112 0
FLAG 432 -112 0
SYMBOL EuroSYM\\voltage3 -512 -208 R0
WINDOW 0 24 16 Left 2
WINDOW 3 24 104 Left 2
WINDOW 123 0 0 Left 0
WINDOW 39 0 0 Left 0
SYMATTR InstName Vdd
SYMATTR Value 3.3
SYMBOL nmos4 160 0 M0
SYMATTR InstName M3
SYMATTR Value nmos_3p3
SYMATTR Value2 l=0.36u w=4u
SYMBOL EuroSYM\\voltage3 -640 -208 R0
WINDOW 0 24 16 Left 2
WINDOW 3 24 104 Left 2
WINDOW 123 0 0 Left 0
WINDOW 39 0 0 Left 0
SYMATTR InstName VSS
SYMATTR Value 0
SYMBOL cap 1152 16 R0
SYMATTR InstName CL
SYMATTR Value 2p
SYMBOL nmos4 -192 0 R0
SYMATTR InstName M5
SYMATTR Value nmos_3p3
SYMATTR Value2 l=0.72u w=8u
SYMBOL EuroSYM\\pmos4 64 -192 M180
WINDOW 0 56 32 Left 2
WINDOW 3 56 72 Left 2
SYMATTR InstName M1
SYMATTR Value pmos_3p3
SYMATTR Value2 l=0.36u w=10u
SYMBOL res -128 -160 R180
WINDOW 0 36 76 Left 2
WINDOW 3 36 40 Left 2
SYMATTR InstName Rbias
SYMATTR Value 33k
SYMBOL EuroSYM\\pmos4 384 -192 R180
WINDOW 0 56 32 Left 2
WINDOW 3 53 73 Left 2
SYMATTR InstName M2
SYMATTR Value pmos_3p3
SYMATTR Value2 l=0.36u w=10u
SYMBOL nmos4 288 0 R0
SYMATTR InstName M4
SYMATTR Value nmos_3p3
SYMATTR Value2 l=0.36u w=4u
SYMBOL nmos4 -272 0 M0
SYMATTR InstName M6
SYMATTR Value nmos_3p3
SYMATTR Value2 l=0.72u w=2u
SYMBOL EuroSYM\\pmos4 -272 -48 R180
WINDOW 0 56 32 Left 2
WINDOW 3 56 72 Left 2
SYMATTR InstName M7
SYMATTR Value pmos_3p3
SYMATTR Value2 l=0.72u w=4u
SYMBOL nmos4 528 0 R0
SYMATTR InstName M9
SYMATTR Value nmos_3p3
SYMATTR Value2 l=0.18u w=0.22u
SYMBOL EuroSYM\\pmos4 528 -64 M180
WINDOW 0 56 32 Left 2
WINDOW 3 56 72 Left 2
SYMATTR InstName M8
SYMATTR Value pmos_3p3
SYMATTR Value2 l=0.18u w=0.44u
SYMBOL nmos4 736 0 R0
SYMATTR InstName M11
SYMATTR Value nmos_3p3
SYMATTR Value2 l=0.18u w=0.66u
SYMBOL EuroSYM\\pmos4 736 -64 M180
WINDOW 0 56 32 Left 2
WINDOW 3 56 72 Left 2
SYMATTR InstName M10
SYMATTR Value pmos_3p3
SYMATTR Value2 l=0.18u w=1.32u
SYMBOL nmos4 960 0 R0
SYMATTR InstName M13
SYMATTR Value nmos_3p3
SYMATTR Value2 l=0.18u w=1.98u
SYMBOL EuroSYM\\pmos4 960 -64 M180
WINDOW 0 56 32 Left 2
WINDOW 3 56 72 Left 2
SYMATTR InstName M12
SYMATTR Value pmos_3p3
SYMATTR Value2 l=0.18u w=3.96u
SYMBOL EuroSYM\\voltage3 -48 -240 R0
WINDOW 0 24 16 Left 2
WINDOW 3 24 104 Left 2
WINDOW 123 0 0 Left 0
WINDOW 39 0 0 Left 0
SYMATTR InstName Vinp
SYMATTR Value 1.65
SYMBOL EuroSYM\\voltage3 432 -240 R0
WINDOW 0 24 16 Left 2
WINDOW 3 24 104 Left 2
WINDOW 123 0 0 Left 0
WINDOW 39 0 0 Left 0
SYMATTR InstName Vinn
SYMATTR Value 1.65
TEXT -664 296 Left 2 !.lib 'GF180nm_sm141064_simplified.lib'
TEXT -664 376 Left 2 !.op
TEXT -664 320 Left 2 ;.dc Vinp 1.64 1.66 0.0001
