Version 4
SHEET 1 1656 680
WIRE -448 -288 -496 -288
WIRE -320 -288 -368 -288
WIRE 368 -288 -320 -288
WIRE 544 -288 368 -288
WIRE 608 -288 544 -288
WIRE 864 -288 608 -288
WIRE 912 -288 864 -288
WIRE 608 -256 608 -288
WIRE 864 -256 864 -288
WIRE 688 -240 656 -240
WIRE 816 -240 688 -240
WIRE 544 -208 544 -288
WIRE 608 -208 544 -208
WIRE 912 -208 912 -288
WIRE 912 -208 864 -208
WIRE -496 -160 -496 -288
WIRE -368 -160 -368 -288
WIRE -112 -160 -128 -160
WIRE -80 -160 -112 -160
WIRE 176 -160 144 -160
WIRE 208 -160 176 -160
WIRE 608 -160 608 -176
WIRE 688 -160 688 -240
WIRE 688 -160 608 -160
WIRE 864 -160 864 -176
WIRE 608 -128 608 -160
WIRE 864 -128 864 -160
WIRE 1056 -128 864 -128
WIRE 1088 -128 1056 -128
WIRE 368 -112 368 -288
WIRE -80 -96 -80 -160
WIRE 144 -96 144 -160
WIRE -176 -80 -208 -80
WIRE -128 -80 -176 -80
WIRE 48 -80 16 -80
WIRE 96 -80 48 -80
WIRE 608 -80 608 -128
WIRE 864 -80 864 -128
WIRE 736 -32 608 -32
WIRE 864 -32 736 -32
WIRE 368 0 368 -32
WIRE 560 0 528 0
WIRE 944 0 912 0
WIRE -224 16 -224 -32
WIRE -80 16 -80 -16
WIRE -80 32 -80 16
WIRE 16 32 -80 32
WIRE 144 32 144 -16
WIRE 144 32 16 32
WIRE -224 48 -224 16
WIRE 608 64 608 16
WIRE 736 64 608 64
WIRE 864 64 864 16
WIRE 864 64 736 64
WIRE 368 80 368 0
WIRE 432 80 368 80
WIRE 368 96 368 80
WIRE 592 96 512 96
WIRE 736 96 736 64
WIRE 368 144 320 144
WIRE 560 144 512 144
WIRE 784 144 736 144
WIRE 432 176 432 80
WIRE 432 176 416 176
WIRE 464 176 432 176
WIRE 592 176 592 96
WIRE 656 176 592 176
WIRE 688 176 656 176
WIRE -368 256 -368 -80
WIRE -224 256 -224 128
WIRE -224 256 -368 256
WIRE -128 256 -128 -32
WIRE -128 256 -224 256
WIRE 16 256 16 112
WIRE 16 256 -128 256
WIRE 96 256 96 -32
WIRE 96 256 16 256
WIRE 320 256 320 144
WIRE 368 256 368 192
WIRE 368 256 320 256
WIRE 512 256 512 192
WIRE 512 256 368 256
WIRE 560 256 560 144
WIRE 560 256 512 256
WIRE 640 256 560 256
WIRE 736 256 736 192
WIRE 736 256 640 256
WIRE 784 256 784 144
WIRE 784 256 736 256
WIRE 1088 256 1088 -64
WIRE -496 272 -496 -80
WIRE -368 272 -368 256
FLAG -368 272 0
FLAG -320 -288 vdd
FLAG -80 16 vcm
FLAG 528 0 vinp
FLAG 944 0 vinn
FLAG 736 64 vtail
FLAG 608 -128 vout_n
FLAG 656 176 vbias
FLAG -496 272 0
FLAG -448 -288 vss
FLAG 1056 -128 vout
FLAG 640 256 vss
FLAG 736 -32 vss
FLAG 1088 256 0
FLAG 368 0 vbias_ref
FLAG -224 16 vin_dm
FLAG -112 -160 vinp
FLAG -176 -80 vin_dm
FLAG 176 -160 vinn
FLAG 48 -80 vin_dm
SYMBOL EuroSYM\\voltage3 -368 -176 R0
WINDOW 0 24 16 Left 2
WINDOW 3 24 104 Left 2
WINDOW 123 0 0 Left 0
WINDOW 39 0 0 Left 0
SYMATTR InstName Vdd
SYMATTR Value 3.3
SYMBOL nmos4 560 -80 R0
SYMATTR InstName M1
SYMATTR Value nmos_3p3
SYMATTR Value2 l=0.5u w=165u
SYMBOL EuroSYM\\voltage3 16 16 R0
WINDOW 0 24 16 Left 2
WINDOW 3 24 104 Left 2
WINDOW 123 0 0 Left 0
WINDOW 39 0 0 Left 0
SYMATTR InstName VCM
SYMATTR Value 1.65
SYMBOL nmos4 688 96 R0
SYMATTR InstName M5
SYMATTR Value nmos_3p3
SYMATTR Value2 l=2u w=210u
SYMBOL EuroSYM\\voltage3 -496 -176 R0
WINDOW 0 24 16 Left 2
WINDOW 3 24 104 Left 2
WINDOW 123 0 0 Left 0
WINDOW 39 0 0 Left 0
SYMATTR InstName VSS
SYMATTR Value 0
SYMBOL cap 1072 -128 R0
SYMATTR InstName CL
SYMATTR Value 10p
SYMBOL EuroSYM\\pmos4 656 -160 R180
WINDOW 0 56 32 Left 2
WINDOW 3 56 72 Left 2
SYMATTR InstName M3
SYMATTR Value pmos_3p3
SYMATTR Value2 l=1u w=140u
SYMBOL nmos4 416 96 M0
SYMATTR InstName M6
SYMATTR Value nmos_3p3
SYMATTR Value2 l=2u w=10u
SYMBOL nmos4 464 96 R0
WINDOW 3 7 106 Left 2
SYMATTR Value nmos_3p3
SYMATTR InstName M7
SYMATTR Value2 l=2u w=10u
SYMBOL EuroSYM\\voltage3 -224 32 R0
WINDOW 0 24 16 Left 2
WINDOW 3 24 104 Left 2
WINDOW 123 24 132 Left 2
WINDOW 39 0 0 Left 0
SYMATTR InstName VIN_DM
SYMATTR Value 0
SYMATTR Value2 AC 1
SYMBOL e -80 -112 R0
SYMATTR InstName EIN_P
SYMATTR Value 0.5
SYMBOL e 144 -112 R0
SYMATTR InstName EIN_N
SYMATTR Value -0.5
SYMBOL nmos4 912 -80 M0
SYMATTR InstName M2
SYMATTR Value nmos_3p3
SYMATTR Value2 l=0.5u w=165u
SYMBOL EuroSYM\\pmos4 816 -160 M180
WINDOW 0 56 32 Left 2
WINDOW 3 56 72 Left 2
SYMATTR InstName M4
SYMATTR Value pmos_3p3
SYMATTR Value2 l=1u w=140u
SYMBOL res 352 -128 R0
SYMATTR InstName RBIAS
SYMATTR Value 33k
TEXT -824 -352 Left 2 !.lib 'GF180nm_sm141064_simplified.lib'
TEXT -976 -304 Left 2 !.op
TEXT -976 -200 Left 2 ;.ac dec 100 1 1G\n.dc VCM 0 3.3 0.01
