Version 4
SHEET 1 1452 680
WIRE -352 -256 -400 -256
WIRE 128 -256 -352 -256
WIRE 128 -208 128 -256
WIRE 384 -176 336 -176
WIRE 480 -176 384 -176
WIRE -400 -160 -400 -256
WIRE 480 -128 480 -176
WIRE 128 -96 128 -128
WIRE 192 -96 128 -96
WIRE 128 -80 128 -96
WIRE 336 -80 336 -176
WIRE 128 -32 80 -32
WIRE 384 -32 336 -32
WIRE 192 0 192 -96
WIRE 192 0 176 0
WIRE 224 0 192 0
WIRE 288 0 224 0
WIRE -400 96 -400 -80
WIRE 80 96 80 -32
WIRE 80 96 -400 96
WIRE 128 96 128 16
WIRE 128 96 80 96
WIRE 336 96 336 16
WIRE 336 96 128 96
WIRE 384 96 384 -32
WIRE 384 96 336 96
WIRE 480 96 480 -48
WIRE 480 96 384 96
WIRE -400 112 -400 96
FLAG -400 112 0
FLAG -352 -256 vdd
FLAG 224 0 gate
FLAG 384 -176 out
SYMBOL EuroSYM\\voltage3 -400 -176 R0
WINDOW 0 24 16 Left 2
WINDOW 3 24 104 Left 2
WINDOW 123 0 0 Left 0
WINDOW 39 0 0 Left 0
SYMATTR InstName Vdd
SYMATTR Value 3.3
SYMBOL res 112 -224 R0
SYMATTR InstName R1
SYMATTR Value 47k
SYMBOL nmos4 176 -80 M0
SYMATTR InstName M1
SYMATTR Value nmos_3p3
SYMATTR Value2 l=0.25u w=4u
SYMBOL nmos4 288 -80 R0
SYMATTR InstName M2
SYMATTR Value nmos_3p3
SYMATTR Value2 l=0.25u w=8u
SYMBOL EuroSYM\\voltage3 480 -144 R0
WINDOW 0 24 16 Left 2
WINDOW 3 24 104 Left 2
WINDOW 123 0 0 Left 0
WINDOW 39 0 0 Left 0
SYMATTR InstName Vout
SYMATTR Value 1.65
TEXT -824 -352 Left 2 !.lib 'GF180nm_sm141064_simplified.lib'
TEXT -816 -304 Left 2 !.op
TEXT -816 -200 Left 2 !.dc Vout 0 3.3 0.01
