Version 4
SHEET 1 1452 680
WIRE -352 -256 -400 -256
WIRE 336 -256 -352 -256
WIRE 608 -256 336 -256
WIRE 640 -256 608 -256
WIRE 944 -256 640 -256
WIRE 992 -256 944 -256
WIRE -400 -160 -400 -256
WIRE 336 -144 336 -256
WIRE 640 -144 640 -256
WIRE 944 -144 944 -256
WIRE 800 -128 688 -128
WIRE 832 -128 800 -128
WIRE 896 -128 832 -128
WIRE 448 -96 336 -96
WIRE 608 -96 608 -256
WIRE 640 -96 608 -96
WIRE 992 -96 992 -256
WIRE 992 -96 944 -96
WIRE -144 -64 -240 -64
WIRE -80 -64 -144 -64
WIRE 32 -64 0 -64
WIRE 64 -64 32 -64
WIRE 176 -64 128 -64
WIRE 288 -64 176 -64
WIRE 832 -48 832 -128
WIRE 944 -48 832 -48
WIRE 336 -32 336 -48
WIRE 560 -32 336 -32
WIRE 592 -32 560 -32
WIRE 640 -32 640 -48
WIRE 640 -32 592 -32
WIRE 832 -16 832 -48
WIRE -400 96 -400 -80
WIRE -240 96 -240 16
WIRE -240 96 -400 96
WIRE 448 96 448 -96
WIRE 448 96 -240 96
WIRE 560 96 560 32
WIRE 560 96 448 96
WIRE 832 96 832 64
WIRE 832 96 560 96
WIRE -400 112 -400 96
FLAG -400 112 0
FLAG -352 -256 vdd
FLAG 176 -64 vgate
FLAG -144 -64 vin_dc
FLAG 32 -64 vin
FLAG 592 -32 vout
FLAG 800 -128 vbias
SYMBOL nmos4 288 -144 R0
SYMATTR InstName M1
SYMATTR Value nmos_3p3
SYMATTR Value2 l=0.4u w=10u
SYMBOL EuroSYM\\voltage3 -400 -176 R0
WINDOW 0 24 16 Left 2
WINDOW 3 24 104 Left 2
WINDOW 123 0 0 Left 0
WINDOW 39 0 0 Left 0
SYMATTR InstName Vdd
SYMATTR Value 3.3
SYMBOL res 816 -32 R0
SYMATTR InstName Rbias
SYMATTR Value 10k
SYMBOL EuroSYM\\voltage3 -240 -80 R0
WINDOW 0 24 16 Left 2
WINDOW 3 24 104 Left 2
WINDOW 123 24 132 Left 2
WINDOW 39 0 0 Left 0
SYMATTR InstName Vin
SYMATTR Value 1.65
SYMBOL cap 544 -32 R0
SYMATTR InstName CL
SYMATTR Value 5p
SYMBOL EuroSYM\\voltage3 16 -64 R90
WINDOW 0 24 16 Left 2
WINDOW 3 24 104 Left 2
WINDOW 123 24 44 Left 2
WINDOW 39 0 0 Left 0
SYMATTR InstName VAC
SYMATTR Value ""
SYMATTR Value2 AC 1
SYMBOL pmos4 688 -48 R180
SYMATTR InstName M2
SYMATTR Value pmos_3p3
SYMATTR Value2 l=0.22u w=25u
SYMBOL pmos4 896 -48 M180
SYMATTR InstName M3
SYMATTR Value pmos_3p3
SYMATTR Value2 l=0.22u w=25u
SYMBOL cap 128 -80 R90
WINDOW 0 0 32 VBottom 2
WINDOW 3 32 32 VTop 2
SYMATTR InstName Cin1
SYMATTR Value 10µ
TEXT -824 -352 Left 2 !.lib 'GF180nm_sm141064_simplified.lib'
TEXT -816 -304 Left 2 !.op
TEXT -816 -200 Left 2 !.ac dec 100 1 1meg
