Version 4
SHEET 1 1452 680
WIRE -240 -256 -288 -256
WIRE 80 -256 -240 -256
WIRE 336 -256 80 -256
WIRE 80 -192 80 -256
WIRE -288 -160 -288 -256
WIRE 336 -160 336 -176
WIRE 400 -160 336 -160
WIRE 432 -160 400 -160
WIRE 544 -160 496 -160
WIRE 656 -160 544 -160
WIRE 336 -144 336 -160
WIRE 368 -96 336 -96
WIRE 544 -80 544 -160
WIRE 656 -80 656 -160
WIRE -80 -64 -176 -64
WIRE -48 -64 -80 -64
WIRE 80 -64 80 -112
WIRE 80 -64 16 -64
WIRE 176 -64 80 -64
WIRE 288 -64 176 -64
WIRE 80 -16 80 -64
WIRE 336 0 336 -48
WIRE 368 0 368 -96
WIRE 368 0 336 0
WIRE -288 96 -288 -80
WIRE -176 96 -176 16
WIRE -176 96 -288 96
WIRE 80 96 80 64
WIRE 80 96 -176 96
WIRE 336 96 336 0
WIRE 336 96 80 96
WIRE 544 96 544 -16
WIRE 544 96 336 96
WIRE 656 96 656 0
WIRE 656 96 544 96
WIRE -288 112 -288 96
FLAG -288 112 0
FLAG -240 -256 vdd
FLAG 176 -64 vg
FLAG -80 -64 in
FLAG 400 -160 vd
FLAG 544 -160 out
SYMBOL nmos4 288 -144 R0
SYMATTR InstName M1
SYMATTR Value nmos_3p3
SYMATTR Value2 l=0.36u w=177u
SYMBOL EuroSYM\\voltage3 -288 -176 R0
WINDOW 0 24 16 Left 2
WINDOW 3 24 104 Left 2
WINDOW 123 0 0 Left 0
WINDOW 39 0 0 Left 0
SYMATTR InstName Vdd
SYMATTR Value 3.3
SYMBOL res 64 -208 R0
SYMATTR InstName R1
SYMATTR Value 300k
SYMBOL res 64 -32 R0
SYMATTR InstName R2
SYMATTR Value 100k
SYMBOL res 320 -272 R0
SYMATTR InstName RD
SYMATTR Value 22k
SYMBOL EuroSYM\\voltage3 -176 -80 R0
WINDOW 0 24 16 Left 2
WINDOW 3 24 104 Left 2
WINDOW 123 24 132 Left 2
WINDOW 39 0 0 Left 0
SYMATTR InstName Vin
SYMATTR Value 0
SYMATTR Value2 AC 1
SYMBOL cap 16 -80 R90
WINDOW 0 0 32 VBottom 2
WINDOW 3 32 32 VTop 2
SYMATTR InstName Cin
SYMATTR Value 10µ
SYMBOL cap 432 -144 R270
WINDOW 0 32 32 VTop 2
WINDOW 3 0 32 VBottom 2
SYMATTR InstName Cout
SYMATTR Value 22µ
SYMBOL cap 528 -80 R0
SYMATTR InstName CL
SYMATTR Value 1p
SYMBOL res 640 -96 R0
SYMATTR InstName RL
SYMATTR Value 10k
TEXT -824 -352 Left 2 !.lib 'GF180nm_sm141064_simplified.lib'
TEXT -816 -304 Left 2 !.op
TEXT -816 -200 Left 2 !.ac dec 100 1 100k
