Version 4
SHEET 1 1452 680
WIRE -544 -288 -592 -288
WIRE -432 -288 -480 -288
WIRE 16 -288 -432 -288
WIRE 192 -288 16 -288
WIRE 256 -288 192 -288
WIRE 512 -288 256 -288
WIRE 560 -288 512 -288
WIRE 256 -256 256 -288
WIRE 512 -256 512 -288
WIRE 336 -240 304 -240
WIRE 464 -240 336 -240
WIRE -304 -224 -336 -224
WIRE -112 -224 -144 -224
WIRE 192 -208 192 -288
WIRE 256 -208 192 -208
WIRE 560 -208 560 -288
WIRE 560 -208 512 -208
WIRE -592 -160 -592 -288
WIRE -480 -160 -480 -288
WIRE -304 -160 -304 -224
WIRE -144 -160 -144 -224
WIRE 256 -160 256 -176
WIRE 336 -160 336 -240
WIRE 336 -160 256 -160
WIRE 512 -160 512 -176
WIRE 256 -128 256 -160
WIRE 512 -128 512 -160
WIRE 704 -128 512 -128
WIRE 736 -128 704 -128
WIRE 16 -112 16 -288
WIRE 256 -80 256 -128
WIRE 512 -80 512 -128
WIRE -304 -32 -304 -80
WIRE -224 -32 -304 -32
WIRE -144 -32 -144 -80
WIRE -144 -32 -224 -32
WIRE 384 -32 256 -32
WIRE 512 -32 384 -32
WIRE 16 0 16 -32
WIRE 208 0 176 0
WIRE 592 0 560 0
WIRE -224 16 -224 -32
WIRE -224 48 -224 16
WIRE 256 64 256 16
WIRE 384 64 256 64
WIRE 512 64 512 16
WIRE 512 64 384 64
WIRE 16 80 16 0
WIRE 80 80 16 80
WIRE 16 96 16 80
WIRE 240 96 160 96
WIRE 384 96 384 64
WIRE 16 144 -32 144
WIRE 208 144 160 144
WIRE 432 144 384 144
WIRE 80 176 80 80
WIRE 80 176 64 176
WIRE 112 176 80 176
WIRE 240 176 240 96
WIRE 304 176 240 176
WIRE 336 176 304 176
WIRE -480 256 -480 -80
WIRE -224 256 -224 128
WIRE -224 256 -480 256
WIRE -32 256 -32 144
WIRE 16 256 16 192
WIRE 16 256 -32 256
WIRE 160 256 160 192
WIRE 160 256 16 256
WIRE 208 256 208 144
WIRE 208 256 160 256
WIRE 288 256 208 256
WIRE 384 256 384 192
WIRE 384 256 288 256
WIRE 432 256 432 144
WIRE 432 256 384 256
WIRE 736 256 736 -64
WIRE -592 272 -592 -80
WIRE -480 272 -480 256
FLAG -480 272 0
FLAG -432 -288 vdd
FLAG -224 16 vcm
FLAG -336 -224 vin_p
FLAG -112 -224 vin_n
FLAG 176 0 vin_p
FLAG 592 0 vin_n
FLAG 384 64 vtail
FLAG 256 -128 vout1
FLAG 304 176 vbias
FLAG -592 272 0
FLAG -544 -288 vss
FLAG 704 -128 vout
FLAG 288 256 vss
FLAG 384 -32 vss
FLAG 736 256 0
FLAG 16 0 vref
SYMBOL EuroSYM\\voltage3 -480 -176 R0
WINDOW 0 24 16 Left 2
WINDOW 3 24 104 Left 2
WINDOW 123 0 0 Left 0
WINDOW 39 0 0 Left 0
SYMATTR InstName Vdd
SYMATTR Value 3.3
SYMBOL nmos4 208 -80 R0
SYMATTR InstName M1
SYMATTR Value nmos_3p3
SYMATTR Value2 l=0.4u w=10u
SYMBOL EuroSYM\\voltage3 -224 32 R0
WINDOW 0 24 16 Left 2
WINDOW 3 24 104 Left 2
WINDOW 123 0 0 Left 0
WINDOW 39 0 0 Left 0
SYMATTR InstName VCM
SYMATTR Value 1.65
SYMBOL EuroSYM\\voltage3 -304 -176 R0
WINDOW 0 24 16 Left 2
WINDOW 3 24 104 Left 2
WINDOW 123 195 47 Left 2
WINDOW 39 0 0 Left 0
SYMATTR InstName VIN_P
SYMATTR Value 0
SYMATTR Value2 AC 0.5
SYMBOL EuroSYM\\voltage3 -144 -176 M0
WINDOW 0 -104 13 Left 2
WINDOW 3 24 104 Left 2
WINDOW 123 24 44 Left 2
WINDOW 39 0 0 Left 0
SYMATTR InstName VIN_N
SYMATTR Value 0
SYMATTR Value2 AC -0.5
SYMBOL nmos4 336 96 R0
SYMATTR InstName M5
SYMATTR Value nmos_3p3
SYMATTR Value2 l=0.4u w=20u
SYMBOL EuroSYM\\voltage3 -592 -176 R0
WINDOW 0 24 16 Left 2
WINDOW 3 24 104 Left 2
WINDOW 123 0 0 Left 0
WINDOW 39 0 0 Left 0
SYMATTR InstName VSS
SYMATTR Value 0
SYMBOL cap 720 -128 R0
SYMATTR InstName CL
SYMATTR Value 2p
SYMBOL nmos4 560 -80 M0
SYMATTR InstName M2
SYMATTR Value nmos_3p3
SYMATTR Value2 l=0.4u w=10u
SYMBOL EuroSYM\\pmos4 304 -160 R180
WINDOW 0 56 32 Left 2
WINDOW 3 56 72 Left 2
SYMATTR InstName M3
SYMATTR Value pmos_3p3
SYMATTR Value2 l=0.3u w=20u
SYMBOL EuroSYM\\pmos4 464 -160 M180
WINDOW 0 56 32 Left 2
WINDOW 3 56 72 Left 2
SYMATTR InstName M4
SYMATTR Value pmos_3p3
SYMATTR Value2 l=0.3u w=20u
SYMBOL current 16 -112 R0
WINDOW 123 0 0 Left 0
WINDOW 39 0 0 Left 0
SYMATTR InstName IREF
SYMATTR Value 100µ
SYMBOL nmos4 64 96 M0
SYMATTR InstName M6
SYMATTR Value nmos_3p3
SYMATTR Value2 l=1u w=10u
SYMBOL nmos4 112 96 R0
WINDOW 3 7 106 Left 2
SYMATTR InstName M7
SYMATTR Value nmos_3p3
SYMATTR Value2 l=0.4u w=20u
TEXT -824 -352 Left 2 !.lib 'C:\\Users\\Moustafa\\Documents\\papers and confrences\\ETECOM 2025\\GitHub\\analog-circuit-llm-benchmark\\reference\\GF180nm_sm141064_simplified.lib'
TEXT -816 -304 Left 2 !.op
TEXT -816 -200 Left 2 ;.ac dec 100 1 1meg
