Version 4
SHEET 1 1452 680
WIRE -608 -96 -656 -96
WIRE -368 -96 -608 -96
WIRE 0 -96 -368 -96
WIRE 0 -80 0 -96
WIRE 464 -32 240 -32
WIRE 720 -32 464 -32
WIRE 944 -32 720 -32
WIRE 720 0 720 -32
WIRE 464 16 464 -32
WIRE 0 32 0 0
WIRE 96 32 0 32
WIRE 944 32 944 -32
WIRE 0 48 0 32
WIRE 240 48 240 -32
WIRE 464 48 464 16
WIRE -368 96 -368 -96
WIRE 0 96 -160 96
WIRE 240 96 192 96
WIRE 512 96 464 96
WIRE 304 128 288 128
WIRE 320 128 304 128
WIRE 416 128 320 128
WIRE -656 160 -656 -96
WIRE 48 160 48 128
WIRE 96 160 96 32
WIRE 96 160 48 160
WIRE 320 160 320 128
WIRE 320 160 96 160
WIRE 0 176 0 144
WIRE 0 192 0 176
WIRE 464 192 464 144
WIRE -368 224 -368 176
WIRE -304 224 -368 224
WIRE -368 240 -368 224
WIRE 0 240 -16 240
WIRE 464 240 464 192
WIRE -368 288 -416 288
WIRE 512 288 512 96
WIRE 512 288 464 288
WIRE -304 320 -304 224
WIRE -304 320 -320 320
WIRE -272 320 -304 320
WIRE 48 320 48 272
WIRE 48 320 -272 320
WIRE 240 320 240 144
WIRE 240 320 48 320
WIRE 416 320 240 320
WIRE -656 416 -656 240
WIRE -416 416 -416 288
WIRE -416 416 -656 416
WIRE -368 416 -368 336
WIRE -368 416 -416 416
WIRE -160 416 -160 96
WIRE -160 416 -368 416
WIRE -16 416 -16 240
WIRE -16 416 -160 416
WIRE 0 416 0 288
WIRE 0 416 -16 416
WIRE 192 416 192 96
WIRE 192 416 0 416
WIRE 464 416 464 336
WIRE 464 416 192 416
WIRE 512 416 512 288
WIRE 512 416 464 416
WIRE 720 416 720 64
WIRE 720 416 512 416
WIRE 944 416 944 112
WIRE 944 416 720 416
WIRE -656 432 -656 416
FLAG -656 432 0
FLAG -608 -96 vdd
FLAG -272 320 n_ref
FLAG 464 192 n_mid
FLAG 464 16 n_out
FLAG 304 128 n_casc
FLAG 0 176 n_bias
SYMBOL EuroSYM\\voltage3 -656 144 R0
WINDOW 0 24 16 Left 2
WINDOW 3 24 104 Left 2
WINDOW 123 0 0 Left 0
WINDOW 39 0 0 Left 0
SYMATTR InstName Vdd
SYMATTR Value 3.3
SYMBOL nmos4 -320 240 M0
SYMATTR InstName M1
SYMATTR Value nmos_3p3
SYMATTR Value2 l=0.22u w=2.2u
SYMBOL nmos4 416 240 R0
SYMATTR InstName M2
SYMATTR Value nmos_3p3
SYMATTR Value2 l=0.22u w=2.2u
SYMBOL current -368 96 R0
WINDOW 123 0 0 Left 0
WINDOW 39 0 0 Left 0
SYMATTR InstName Iref
SYMATTR Value 20µ
SYMBOL nmos4 416 48 R0
SYMATTR InstName M4
SYMATTR Value nmos_3p3
SYMATTR Value2 l=0.22u w=2.2u
SYMBOL nmos4 288 48 M0
SYMATTR InstName M3
SYMATTR Value nmos_3p3
SYMATTR Value2 l=0.22u w=2.2u
SYMBOL nmos4 48 48 M0
SYMATTR InstName M5
SYMATTR Value nmos_3p3
SYMATTR Value2 l=0.22u w=2.2u
SYMBOL nmos4 48 192 M0
SYMATTR InstName M6
SYMATTR Value nmos_3p3
SYMATTR Value2 l=0.22u w=2.2u
SYMBOL current 0 -80 R0
WINDOW 123 0 0 Left 0
WINDOW 39 0 0 Left 0
SYMATTR InstName Ibias
SYMATTR Value 20µ
SYMBOL cap 704 0 R0
SYMATTR InstName CL
SYMATTR Value 1p
SYMBOL EuroSYM\\voltage3 944 16 R0
WINDOW 0 24 16 Left 2
WINDOW 3 24 104 Left 2
WINDOW 123 0 0 Left 0
WINDOW 39 0 0 Left 0
SYMATTR InstName Vout
SYMATTR Value 1.65
TEXT -824 -352 Left 2 !.lib 'C:\\Users\\Moustafa\\Documents\\papers and confrences\\ETECOM 2025\\GitHub\\analog-circuit-llm-benchmark\\reference\\GF180nm_sm141064_simplified.lib'
TEXT -816 -304 Left 2 !.op
TEXT -816 -256 Left 2 !.dc Vout 0 3.3 0.01
