Version 4
SHEET 1 1800 680
WIRE -448 -288 -496 -288
WIRE -320 -288 -368 -288
WIRE 240 -288 -320 -288
WIRE 544 -288 240 -288
WIRE 608 -288 544 -288
WIRE 864 -288 608 -288
WIRE 912 -288 864 -288
WIRE 1264 -288 912 -288
WIRE 1312 -288 1264 -288
WIRE 608 -256 608 -288
WIRE 864 -256 864 -288
WIRE 1264 -256 1264 -288
WIRE 688 -240 656 -240
WIRE 816 -240 688 -240
WIRE 1216 -240 1008 -240
WIRE -160 -224 -192 -224
WIRE 32 -224 0 -224
WIRE 544 -208 544 -288
WIRE 608 -208 544 -208
WIRE 912 -208 912 -288
WIRE 912 -208 864 -208
WIRE 1312 -208 1312 -288
WIRE 1312 -208 1264 -208
WIRE 240 -192 240 -288
WIRE -496 -160 -496 -288
WIRE -368 -160 -368 -288
WIRE -160 -160 -160 -224
WIRE 0 -160 0 -224
WIRE 608 -160 608 -176
WIRE 688 -160 688 -240
WIRE 688 -160 608 -160
WIRE 864 -160 864 -176
WIRE 1264 -160 1264 -176
WIRE 864 -144 864 -160
WIRE 1008 -144 1008 -240
WIRE 1008 -144 864 -144
WIRE 608 -128 608 -160
WIRE 864 -112 864 -144
WIRE 864 -96 864 -112
WIRE 928 -96 864 -96
WIRE 1072 -96 992 -96
WIRE 1152 -96 1072 -96
WIRE 1264 -96 1264 -160
WIRE 1264 -96 1232 -96
WIRE 608 -80 608 -128
WIRE 864 -80 864 -96
WIRE -160 -32 -160 -80
WIRE -80 -32 -160 -32
WIRE 0 -32 0 -80
WIRE 0 -32 -80 -32
WIRE 736 -32 608 -32
WIRE 864 -32 736 -32
WIRE 1264 -32 1264 -96
WIRE 1392 -32 1264 -32
WIRE 1424 -32 1392 -32
WIRE 240 0 240 -112
WIRE 560 0 528 0
WIRE 944 0 912 0
WIRE -80 16 -80 -32
WIRE 1424 32 1424 -32
WIRE -80 48 -80 16
WIRE 608 64 608 16
WIRE 736 64 608 64
WIRE 864 64 864 16
WIRE 864 64 736 64
WIRE 240 80 240 0
WIRE 304 80 240 80
WIRE 240 96 240 80
WIRE 592 96 512 96
WIRE 736 96 736 64
WIRE 1072 96 944 96
WIRE 1264 112 1264 -32
WIRE 240 144 192 144
WIRE 560 144 512 144
WIRE 784 144 736 144
WIRE 992 144 944 144
WIRE 1312 160 1264 160
WIRE 304 176 304 80
WIRE 304 176 288 176
WIRE 432 176 304 176
WIRE 464 176 432 176
WIRE 592 176 592 96
WIRE 656 176 592 176
WIRE 688 176 656 176
WIRE 1072 192 1072 96
WIRE 1184 192 1072 192
WIRE 1216 192 1184 192
WIRE 432 208 432 176
WIRE 896 208 896 176
WIRE 896 208 432 208
WIRE -368 256 -368 -80
WIRE -80 256 -80 128
WIRE -80 256 -368 256
WIRE 192 256 192 144
WIRE 240 256 240 192
WIRE 240 256 192 256
WIRE 512 256 512 192
WIRE 512 256 240 256
WIRE 560 256 560 144
WIRE 560 256 512 256
WIRE 640 256 560 256
WIRE 736 256 736 192
WIRE 736 256 640 256
WIRE 784 256 784 144
WIRE 784 256 736 256
WIRE 944 256 944 192
WIRE 944 256 784 256
WIRE 992 256 992 144
WIRE 992 256 944 256
WIRE 1264 256 1264 208
WIRE 1264 256 992 256
WIRE 1312 256 1312 160
WIRE 1312 256 1264 256
WIRE 1424 256 1424 96
WIRE -496 272 -496 -80
WIRE -368 272 -368 256
FLAG -368 272 0
FLAG -320 -288 vdd
FLAG 736 64 vs1
FLAG 608 -128 vd1
FLAG 656 176 vbias1
FLAG -496 272 0
FLAG -448 -288 vss
FLAG 1392 -32 vout
FLAG 640 256 vss
FLAG 736 -32 vss
FLAG 1424 256 0
FLAG 240 0 vbias_ref
FLAG -80 16 vcm
FLAG -192 -224 vin_p
FLAG 32 -224 vin_n
FLAG 864 -112 vd2
FLAG 528 0 vin_p
FLAG 944 0 vin_n
FLAG 1184 192 vbias2
FLAG 1072 -96 vout_comp
SYMBOL EuroSYM\\voltage3 -368 -176 R0
WINDOW 0 24 16 Left 2
WINDOW 3 24 104 Left 2
WINDOW 123 0 0 Left 0
WINDOW 39 0 0 Left 0
SYMATTR InstName Vdd
SYMATTR Value 3.3
SYMBOL nmos4 560 -80 R0
SYMATTR InstName M1
SYMATTR Value nmos_3p3
SYMATTR Value2 l=0.5u w=8u
SYMBOL nmos4 688 96 R0
SYMATTR InstName M5
SYMATTR Value nmos_3p3
SYMATTR Value2 l=0.5u w=4u
SYMBOL EuroSYM\\voltage3 -496 -176 R0
WINDOW 0 24 16 Left 2
WINDOW 3 24 104 Left 2
WINDOW 123 0 0 Left 0
WINDOW 39 0 0 Left 0
SYMATTR InstName VSS
SYMATTR Value 0
SYMBOL cap 1408 32 R0
SYMATTR InstName CL
SYMATTR Value 20p
SYMBOL EuroSYM\\pmos4 656 -160 R180
WINDOW 0 56 32 Left 2
WINDOW 3 56 72 Left 2
SYMATTR InstName M3
SYMATTR Value pmos_3p3
SYMATTR Value2 l=0.5u w=4u
SYMBOL nmos4 288 96 M0
SYMATTR InstName M8
SYMATTR Value nmos_3p3
SYMATTR Value2 l=0.5u w=1u
SYMBOL nmos4 464 96 R0
WINDOW 3 7 106 Left 2
SYMATTR Value nmos_3p3
SYMATTR InstName M9
SYMATTR Value2 l=0.5u w=4u
SYMBOL EuroSYM\\voltage3 -80 32 R0
WINDOW 0 24 16 Left 2
WINDOW 3 24 104 Left 2
WINDOW 123 0 0 Left 0
WINDOW 39 0 0 Left 0
SYMATTR InstName VCM
SYMATTR Value 1.65
SYMBOL EuroSYM\\voltage3 -160 -176 R0
WINDOW 0 24 16 Left 2
WINDOW 3 24 104 Left 2
WINDOW 123 33 54 Left 2
WINDOW 39 0 0 Left 0
SYMATTR InstName VIN_P
SYMATTR Value 0
SYMATTR Value2 AC 0.5
SYMBOL EuroSYM\\voltage3 0 -176 M0
WINDOW 0 -104 13 Left 2
WINDOW 3 24 104 Left 2
WINDOW 123 -122 53 Left 2
WINDOW 39 0 0 Left 0
SYMATTR InstName VIN_N
SYMATTR Value 0
SYMATTR Value2 AC -0.5
SYMBOL nmos4 912 -80 M0
SYMATTR InstName M2
SYMATTR Value nmos_3p3
SYMATTR Value2 l=0.5u w=8u
SYMBOL EuroSYM\\pmos4 816 -160 M180
WINDOW 0 56 32 Left 2
WINDOW 3 56 72 Left 2
SYMATTR InstName M4
SYMATTR Value pmos_3p3
SYMATTR Value2 l=0.5u w=4u
SYMBOL EuroSYM\\pmos4 1216 -160 M180
WINDOW 0 56 32 Left 2
WINDOW 3 56 72 Left 2
SYMATTR InstName M6
SYMATTR Value pmos_3p3
SYMATTR Value2 l=0.4u w=24u
SYMBOL nmos4 1216 112 R0
SYMATTR InstName M7
SYMATTR Value nmos_3p3
SYMATTR Value2 l=0.4u w=10u
SYMBOL cap 992 -112 R90
WINDOW 0 0 32 VBottom 2
WINDOW 3 32 32 VTop 2
SYMATTR InstName Cc
SYMATTR Value 2p
SYMBOL res 1248 -112 R90
WINDOW 0 0 56 VBottom 2
WINDOW 3 32 56 VTop 2
SYMATTR InstName Rc
SYMATTR Value 10k
SYMBOL current 240 -192 R0
WINDOW 123 0 0 Left 0
WINDOW 39 0 0 Left 0
SYMATTR InstName Iref
SYMATTR Value 10µ
SYMBOL nmos4 896 96 R0
WINDOW 3 7 106 Left 2
SYMATTR Value nmos_3p3
SYMATTR InstName M10
SYMATTR Value2 l=0.5u w=6u
TEXT -576 -368 Left 2 !.lib 'C:\\Users\\Moustafa\\Documents\\papers and confrences\\ETECOM 2025\\GitHub\\analog-circuit-llm-benchmark\\reference\\GF180nm_sm141064_simplified.lib'
TEXT -496 416 Left 2 !.op
TEXT -496 352 Left 2 ;.ac dec 100 1 1G\n.dc VCM 0 3.3 0.01
