Version 4
SHEET 1 1452 680
WIRE -400 -304 -432 -304
WIRE 16 -304 -400 -304
WIRE -432 -256 -432 -304
WIRE 16 -256 16 -304
WIRE 272 -112 240 -112
WIRE 416 -112 272 -112
WIRE 784 -112 416 -112
WIRE 16 -96 16 -176
WIRE 16 -48 16 -96
WIRE 96 -48 16 -48
WIRE 16 -32 16 -48
WIRE 240 -32 240 -112
WIRE 16 16 -32 16
WIRE 288 16 240 16
WIRE 416 16 416 -112
WIRE 784 16 784 -112
WIRE 96 48 96 -48
WIRE 96 48 64 48
WIRE 192 48 96 48
WIRE 96 80 -304 80
WIRE -304 112 -304 80
WIRE 240 112 240 64
WIRE 16 144 16 64
WIRE 16 224 16 144
WIRE 80 224 16 224
WIRE 240 224 240 112
WIRE -32 272 -32 16
WIRE 16 272 -32 272
WIRE 288 272 288 16
WIRE 288 272 240 272
WIRE 80 304 80 224
WIRE 80 304 64 304
WIRE 192 304 80 304
WIRE -432 352 -432 -176
WIRE -304 352 -304 192
WIRE -304 352 -432 352
WIRE -32 352 -32 272
WIRE -32 352 -304 352
WIRE 16 352 16 320
WIRE 16 352 -32 352
WIRE 240 352 240 320
WIRE 240 352 16 352
WIRE 288 352 288 272
WIRE 288 352 240 352
WIRE 416 352 416 80
WIRE 416 352 288 352
WIRE 576 352 576 96
WIRE 576 352 416 352
WIRE 784 352 784 96
WIRE 784 352 576 352
WIRE -432 368 -432 352
FLAG -432 368 0
FLAG -400 -304 vdd
FLAG 272 -112 OUT
FLAG -304 80 VB
FLAG 16 -96 NREFTOP
FLAG 16 144 NREF
FLAG 240 112 NINT
SYMBOL EuroSYM\\voltage3 -432 -272 R0
WINDOW 0 24 16 Left 2
WINDOW 3 24 104 Left 2
WINDOW 123 0 0 Left 0
WINDOW 39 0 0 Left 0
SYMATTR InstName Vdd
SYMATTR Value {VDD}
SYMBOL nmos4 64 -32 M0
SYMATTR InstName M3
SYMATTR Value nmos_3p3
SYMATTR Value2 l=0.6u w=30u
SYMBOL EuroSYM\\voltage3 576 0 R0
WINDOW 0 24 16 Left 2
WINDOW 3 24 104 Left 2
WINDOW 123 0 0 Left 0
WINDOW 39 0 0 Left 0
SYMATTR InstName VOUT
SYMATTR Value {VOUT_BIAS}
SYMBOL EuroSYM\\voltage3 -304 96 R0
WINDOW 0 24 16 Left 2
WINDOW 3 24 104 Left 2
WINDOW 123 0 0 Left 0
WINDOW 39 0 0 Left 0
SYMATTR InstName VBIAS
SYMATTR Value {VB}
SYMBOL current 16 -256 M0
WINDOW 123 0 0 Left 0
WINDOW 39 0 0 Left 0
SYMATTR InstName IREFSRC
SYMATTR Value {IREF}
SYMBOL nmos4 64 224 M0
SYMATTR InstName M1
SYMATTR Value nmos_3p3
SYMATTR Value2 l=0.6u w=30u
SYMBOL nmos4 192 224 R0
SYMATTR InstName M2
SYMATTR Value nmos_3p3
SYMATTR Value2 l=0.6u w=30u
SYMBOL nmos4 192 -32 R0
SYMATTR InstName M4
SYMATTR Value nmos_3p3
SYMATTR Value2 l=0.6u w=30u
SYMBOL cap 400 16 R0
SYMATTR InstName CLOAD
SYMATTR Value 1p
SYMBOL current 784 16 R0
WINDOW 123 24 108 Left 2
WINDOW 39 0 0 Left 0
SYMATTR Value2 AC 1
SYMATTR InstName ITEST
SYMATTR Value 0
TEXT -824 -352 Left 2 !.lib 'GF180nm_sm141064_simplified.lib'
TEXT -824 -280 Left 2 !.op
TEXT -824 -176 Left 2 !;dc VOUT 0 3.3 0.05
TEXT -816 -520 Left 2 !.param VDD=3.3\n.param IREF=20u\n.param VB=1.1          ; cascode gate bias ~ Vth + 2*Vov (set by bias block)\n.param VOUT_BIAS=1.2   ; operating bias for AC/TF\n.temp 27
TEXT -824 -128 Left 2 !;tf V(OUT) ITEST
TEXT -816 -80 Left 2 !.ac dec 50 1 1e6
