Version 4
SHEET 1 2000 680
WIRE -80 -112 -112 -112
WIRE -112 -32 -112 -112
WIRE -112 96 -112 48
WIRE 224 96 208 96
WIRE 208 128 208 96
WIRE 144 144 80 144
WIRE -80 176 -112 176
WIRE 304 176 288 176
WIRE 400 176 304 176
WIRE 528 176 400 176
WIRE 144 208 80 208
WIRE -112 256 -112 176
WIRE 208 256 208 224
WIRE 528 272 528 240
WIRE -112 384 -112 336
WIRE -80 432 -112 432
WIRE -112 512 -112 432
WIRE -112 640 -112 592
FLAG -112 96 0
FLAG -80 -112 vdd
FLAG 80 144 vinp
FLAG 80 208 vinn
FLAG 400 176 vout
FLAG 224 96 vdd
FLAG 208 256 0
FLAG -112 384 0
FLAG -80 176 vinp
FLAG 528 272 0
FLAG -112 640 0
FLAG -80 432 vinn
SYMBOL circuit10_comparator 176 176 R0
SYMATTR InstName X1
SYMBOL voltage -112 -48 R0
WINDOW 123 0 0 Left 0
WINDOW 39 0 0 Left 0
SYMATTR InstName VDD
SYMATTR Value {VDD}
SYMBOL voltage -112 240 R0
WINDOW 123 0 0 Left 0
WINDOW 39 0 0 Left 0
SYMATTR InstName BVP
SYMATTR Value {VCM}
SYMBOL cap 512 176 R0
SYMATTR InstName CLOAD
SYMATTR Value 2p
SYMBOL voltage -112 496 R0
WINDOW 123 0 0 Left 0
WINDOW 39 0 0 Left 0
SYMATTR InstName BVN
SYMATTR Value PULSE({VCM + 10m} {VCM - 10m} 15n 1p 1p 400n 1)
TEXT 120 -192 Left 2 !.param VDD=3.3 VCM=1.65
TEXT 128 -152 Left 2 !.lib 'GF180nm_sm141064_simplified.lib'
TEXT 136 -104 Left 2 !.tran 10p 300n
