Version 4
SHEET 1 1452 680
WIRE -288 -96 -512 -96
WIRE -160 -96 -288 -96
WIRE 144 -96 -160 -96
WIRE -512 -32 -512 -96
WIRE -160 48 -160 -16
WIRE 144 48 144 -16
WIRE -160 80 -160 48
WIRE 144 80 144 48
WIRE 0 128 -160 128
WIRE 144 128 0 128
WIRE -272 160 -320 160
WIRE -208 160 -272 160
WIRE 240 160 192 160
WIRE -320 208 -320 160
WIRE -160 208 -160 176
WIRE -16 208 -160 208
WIRE 0 208 -16 208
WIRE 144 208 144 176
WIRE 144 208 0 208
WIRE 240 208 240 160
WIRE -16 256 -16 208
WIRE -512 416 -512 48
WIRE -320 416 -320 288
WIRE -320 416 -512 416
WIRE -16 416 -16 336
WIRE -16 416 -320 416
WIRE 240 416 240 288
WIRE 240 416 -16 416
WIRE -512 432 -512 416
FLAG -512 432 0
FLAG -288 -96 vdd
FLAG 0 128 0
FLAG -272 160 vip
FLAG 240 160 vin
FLAG -160 48 vop
FLAG 0 208 tail
FLAG 144 48 von
SYMBOL EuroSYM\\voltage3 -512 -48 R0
WINDOW 0 24 16 Left 2
WINDOW 3 24 104 Left 2
WINDOW 123 0 0 Left 0
WINDOW 39 0 0 Left 0
SYMATTR InstName Vdd
SYMATTR Value {VDD}
SYMBOL nmos4 -208 80 R0
SYMATTR InstName M1
SYMATTR Value nmos_3p3
SYMATTR Value2 l={L_N} w={WN}
SYMBOL EuroSYM\\voltage3 -320 192 R0
WINDOW 0 24 16 Left 2
WINDOW 3 24 104 Left 2
WINDOW 123 24 132 Left 2
WINDOW 39 0 0 Left 0
SYMATTR InstName Vip
SYMATTR Value {VCM}
SYMATTR Value2 AC {Acm + Adiff}
SYMBOL res -176 -112 R0
SYMATTR InstName RLP
SYMATTR Value {RL}
SYMBOL EuroSYM\\voltage3 240 192 M0
WINDOW 0 24 16 Left 2
WINDOW 3 24 104 Left 2
WINDOW 123 24 132 Left 2
WINDOW 39 0 0 Left 0
SYMATTR InstName Vin
SYMATTR Value {VCM}
SYMATTR Value2 AC {Acm - Adiff}
SYMBOL res 128 -112 R0
SYMATTR InstName RLN
SYMATTR Value {RL}
SYMBOL current -16 256 R0
WINDOW 123 0 0 Left 0
WINDOW 39 0 0 Left 0
SYMATTR InstName ITAIL
SYMATTR Value 200µ
SYMBOL nmos4 192 80 M0
SYMATTR InstName M2
SYMATTR Value nmos_3p3
SYMATTR Value2 l={L_N} w={WN}
TEXT -824 -352 Left 2 !.lib 'GF180nm_sm141064_simplified.lib'
TEXT -824 -280 Left 2 !;op
TEXT -824 -176 Left 2 ;.ac lin 1 1k 1k
TEXT -824 -600 Left 2 !.param VDD=3.3\n.param VCM=1.65\n.param RL=5k\n.param WN=24u\n.param L_N=0.5u\n.param Adiff=0     ; differential AC amplitude (V)\n.param Acm=1       ; common-mode AC amplitude (V)\n.temp 27
TEXT -816 -112 Left 2 !.ac dec 100 1 1G
