Version 4
SHEET 1 1452 680
WIRE -192 -208 -432 -208
WIRE 64 -208 -192 -208
WIRE 112 -208 64 -208
WIRE 416 -208 112 -208
WIRE 464 -208 416 -208
WIRE 112 -112 112 -208
WIRE 416 -112 416 -208
WIRE 192 -96 160 -96
WIRE 368 -96 192 -96
WIRE 64 -64 64 -208
WIRE 112 -64 64 -64
WIRE 464 -64 464 -208
WIRE 464 -64 416 -64
WIRE -432 -32 -432 -208
WIRE 112 16 112 -16
WIRE 192 16 192 -96
WIRE 192 16 112 16
WIRE -192 32 -192 -208
WIRE 112 48 112 16
WIRE 416 48 416 -16
WIRE 736 48 416 48
WIRE 880 48 736 48
WIRE 112 80 112 48
WIRE 416 80 416 48
WIRE 736 80 736 48
WIRE 272 128 112 128
WIRE 416 128 272 128
WIRE 0 160 -48 160
WIRE 64 160 0 160
WIRE 528 160 464 160
WIRE 576 160 528 160
WIRE -192 208 -192 112
WIRE -192 208 -352 208
WIRE -112 208 -192 208
WIRE -48 208 -48 160
WIRE 112 208 112 176
WIRE 256 208 112 208
WIRE 272 208 256 208
WIRE 416 208 416 176
WIRE 416 208 272 208
WIRE 576 208 576 160
WIRE -192 240 -192 208
WIRE 256 240 256 208
WIRE -192 256 -192 240
WIRE 256 256 256 240
WIRE -192 288 -224 288
WIRE 288 288 256 288
WIRE -112 320 -112 208
WIRE -112 320 -144 320
WIRE 208 320 -112 320
WIRE -432 416 -432 48
WIRE -352 416 -352 272
WIRE -352 416 -432 416
WIRE -224 416 -224 288
WIRE -224 416 -352 416
WIRE -192 416 -192 336
WIRE -192 416 -224 416
WIRE -48 416 -48 288
WIRE -48 416 -192 416
WIRE 256 416 256 336
WIRE 256 416 -48 416
WIRE 288 416 288 288
WIRE 288 416 256 416
WIRE 576 416 576 288
WIRE 576 416 288 416
WIRE 736 416 736 144
WIRE 736 416 576 416
WIRE 880 416 880 128
WIRE 880 416 736 416
WIRE -432 432 -432 416
FLAG -432 432 0
FLAG -432 -208 vdd
FLAG 272 128 0
FLAG 0 160 in_p
FLAG 112 48 nd1
FLAG 272 208 ntail
FLAG 416 48 out
FLAG 528 160 in_n
FLAG -112 208 nbias
SYMBOL EuroSYM\\voltage3 -432 -48 R0
WINDOW 0 24 16 Left 2
WINDOW 3 24 104 Left 2
WINDOW 123 0 0 Left 0
WINDOW 39 0 0 Left 0
SYMATTR InstName Vdd
SYMATTR Value {VDD}
SYMBOL nmos4 64 80 R0
SYMATTR InstName M1
SYMATTR Value nmos_3p3
SYMATTR Value2 l=0.6u w=12u
SYMBOL EuroSYM\\voltage3 -48 192 R0
WINDOW 0 24 16 Left 2
WINDOW 3 24 104 Left 2
WINDOW 123 24 132 Left 2
WINDOW 39 0 0 Left 0
SYMATTR InstName VINP
SYMATTR Value {VCM}
SYMATTR Value2 AC 0.5
SYMBOL EuroSYM\\voltage3 576 192 M0
WINDOW 0 24 16 Left 2
WINDOW 3 24 104 Left 2
WINDOW 123 24 132 Left 2
WINDOW 39 0 0 Left 0
SYMATTR InstName VINN
SYMATTR Value {VCM}
SYMATTR Value2 AC -0.5
SYMBOL nmos4 464 80 M0
SYMATTR InstName M2
SYMATTR Value nmos_3p3
SYMATTR Value2 l=0.6u w=12u
SYMBOL EuroSYM\\pmos4 160 -16 R180
WINDOW 0 56 32 Left 2
WINDOW 3 56 72 Left 2
SYMATTR InstName M3
SYMATTR Value pmos_3p3
SYMATTR Value2 l=0.6u  w=24u
SYMBOL EuroSYM\\pmos4 368 -16 M180
WINDOW 0 56 32 Left 2
WINDOW 3 56 72 Left 2
SYMATTR InstName M4
SYMATTR Value pmos_3p3
SYMATTR Value2 l=0.6u  w=24u
SYMBOL nmos4 208 240 R0
SYMATTR InstName MTAIL
SYMATTR Value nmos_3p3
SYMATTR Value2 l=1.2u w=24u
SYMBOL nmos4 -144 240 M0
SYMATTR InstName MREF
SYMATTR Value nmos_3p3
SYMATTR Value2 l=1.2u w=24u
SYMBOL res -208 16 R0
SYMATTR InstName RB
SYMATTR Value 24k
SYMBOL cap -368 208 R0
SYMATTR InstName CBIAS
SYMATTR Value 100n
SYMBOL cap 720 80 R0
SYMATTR InstName CLOAD
SYMATTR Value {CL}
SYMBOL current 880 48 R0
WINDOW 123 0 0 Left 0
WINDOW 39 0 0 Left 0
SYMATTR InstName IX
SYMATTR Value 0
TEXT -800 -352 Left 2 !.lib 'GF180nm_sm141064_simplified.lib'
TEXT -824 -280 Left 2 !.op
TEXT -824 -600 Left 2 !.param VDD=3.3  VCM=1.65  ITAIL=100u  CL=2p\n.temp 27
TEXT -832 -312 Left 2 !.tf V(out) IX
TEXT -824 -208 Left 2 ;.ac dec 200 1 10MEG
