* Simplified SM141064.ngspice - 3.3V NMOS/PMOS Typical Models Only
* Based on GlobalFoundries 180nm PDK
* 
* This file contains only the typical models for 3.3V NMOS and PMOS devices
* All Monte Carlo parameters, process corners, and other primitives have been removed
*
*******************************************************************************
* Copyright 2022 GlobalFoundries PDK Authors
*
* Licensed under the Apache License, Version 2.0 (the "License");
* you may not use this file except in compliance with the License.
* You may obtain a copy of the License at
*
*     https://www.apache.org/licenses/LICENSE-2.0
*
* Unless required by applicable law or agreed to in writing, software
* distributed under the License is distributed on an "AS IS" BASIS,
* WITHOUT WARRANTIES OR CONDITIONS OF ANY KIND, either express or implied.
* See the License for the specific language governing permissions and
* limitations under the License.
*******************************************************************************

*******************************************************************************
* 3.3V NMOS Model - Typical
*******************************************************************************
.model nmos_3p3 nmos
+level   = 54
+version = 4.5
+binunit = 2
+paramchk= 1
+mobmod  = 0
+capmod  = 2
+igcmod  = 0
+igbmod  = 0
+geomod  = 0
+diomod  = 1
+rdsmod  = 0
+rbodymod= 0
+rgatemod= 0
+permod  = 1
+acnqsmod= 0
+trnqsmod= 0
* Temperature parameters
+tnom    = 25
* Oxide parameters
+toxe    = 8e-009
+toxp    = 8e-009
+toxm    = 8e-009
+toxref  = 8e-009
+epsrox  = 3.9
* Geometry parameters
+xl      = 0
+xw      = 0
+dlc     = 0
+dwc     = 0
+dlcig   = 1.5e-007
+xpart   = 0
+wint    = 1e-008
+lint    = 0
* Binning parameters
+ll      = 0
+wl      = 0
+lln     = 1
+wln     = 1
+lw      = 0
+ww      = 0
+lwn     = 1
+wwn     = 1
+lwl     = 0
+wwl     = 0
* DC parameters
+vth0    = 0.7
+k1      = 0.95
+k2      = 0.02
+k3      = 0
+k3b     = 0
+w0      = 5e-007
+dvt0    = 0
+dvt1    = 0.53
+dvt2    = 0
+dvt0w   = 0
+dvt1w   = 0
+dvt2w   = 0
+dsub    = 0.5
+minv    = -0.25
+voffl   = 0
+dvtp0   = 0
+dvtp1   = 0
+lpe0    = 1.1e-007
+lpeb    = 0
+vbm     = -3
+xj      = 1e-007
+ngate   = 6e+019
+ndep    = 3e+017
+nsd     = 1e+020
+phin    = 0.07
+cdsc    = 0
+cdscb   = 0
+cdscd   = 0
+cit     = 0
+voff    = -0.126
+nfactor = 1
+eta0    = 0.75
+etab    = -0.32
+vfb     = -1
* Mobility parameters
+u0      = 0.024
+ua      = -1.15e-009
+ub      = 3.4e-018
+uc      = 2.3e-010
+eu      = 1.67
+vsat    = 90000
* Output resistance parameters
+a0      = 0.65
+ags     = 0.76
+a1      = 0
+a2      = 1
+b0      = 0
+b1      = 0
+keta    = -0.03
+dwg     = 0
+dwb     = 0
+pclm    = 0.32
+pdiblc1 = 0.39
+pdiblc2 = 0.003171
+pdiblcb = 0
+drout   = 0.9
+pvag    = 0
+delta   = 0.003
+pscbe1  = 6.6e+008
+pscbe2  = 1.6e-005
+fprout  = 0
+pdits   = 0
+pditsd  = 0
+pditsl  = 0
* RDSW parameters
+rsh     = 7
+rdsw    = 530
+rdswmin = 50
+rdwmin  = 0
+rswmin  = 0
+prwg    = 0
+prwb    = 0
+wr      = 1
* GIDL parameters
+alpha0  = 8.1e-005
+alpha1  = 0
+beta0   = 24.1
+agidl   = 1.3e-010
+bgidl   = 1.9e+009
+cgidl   = 0.5
+egidl   = 0.8
* Gate capacitance parameters
+cgso    = 1e-010
+cgdo    = 1e-010
+cgbo    = 1e-013
+cgdl    = 1e-010
+cgsl    = 1e-010
+clc     = 1e-007
+cle     = 0.6
+cf      = 0
+ckappas = 0.6
+ckappad = 0.6
+vfbcv   = -1
+acde    = 0.6
+moin    = 15
+noff    = 2.11
+voffcv  = -0.057
* Temperature coefficients
+kt1     = -0.31
+kt1l    = 0
+kt2     = -0.017
+ute     = -1.55
+ua1     = 1.66e-009
+ub1     = -2.32e-018
+uc1     = -5.6e-011
+prt     = 0
+at      = 23000
* Noise parameters
+fnoimod = 1
+tnoimod = 0
+em      = 4.1e+007
+ef      = 0.95
+noia    = 3.2e+041
+noib    = 1.2e+020
+noic    = 6.0e+008
+ntnoi   = 1
* Source/Drain junction parameters
+jss     = 2.3e-007
+jsws    = 2.1e-013
+jswgs   = 0
+njs     = 1.01
+ijthsfwd= 0.1
+ijthsrev= 0.1
+pbs     = 0.70172
+cjs     = 0.00097
+mjs     = 0.32071
+pbsws   = 0.8062
+cjsws   = 1.57e-010
+mjsws   = 0.1
+pbswgs  = 0.74743
+cjswgs  = 5.99e-010
+mjswgs  = 0.32059
+tpb     = 0.00181
+tcj     = 0.00094
+tpbsw   = 5e-005
+tcjsw   = 0.0006
+tpbswg  = 0.00169
+tcjswg  = 0.001
+xtis    = 3
* Layout-dependent parameters
+dmcg    = 1.5e-007
+saref   = 4.4e-007
+sbref   = 4.4e-007
+kvth0   = 0
+ku0     = 0
+kvsat   = 0

*******************************************************************************
* 3.3V PMOS Model - Typical
*******************************************************************************
.model pmos_3p3 pmos
+level   = 54
+version = 4.5
+binunit = 2
+paramchk= 1
+mobmod  = 0
+capmod  = 2
+igcmod  = 0
+igbmod  = 0
+geomod  = 0
+diomod  = 1
+rdsmod  = 0
+rbodymod= 0
+rgatemod= 0
+permod  = 1
+acnqsmod= 0
+trnqsmod= 0
* Temperature parameters
+tnom    = 25
* Oxide parameters
+toxe    = 7.9e-009
+toxp    = 7.9e-009
+toxm    = 7.9e-009
+toxref  = 7.9e-009
+epsrox  = 3.9
* Geometry parameters
+xl      = 0
+xw      = 0
+dlc     = -8e-009
+dwc     = 0
+dlcig   = 1.5e-007
+xpart   = 0
+wint    = -1e-008
+lint    = 0
* Binning parameters
+ll      = 0
+wl      = 0
+lln     = 1
+wln     = 1
+lw      = 0
+ww      = 0
+lwn     = 1
+wwn     = 1
+lwl     = 0
+wwl     = 0
* DC parameters
+vth0    = -0.83
+k1      = 1.0
+k2      = 0.015
+k3      = 0
+k3b     = 0
+w0      = 2.5e-006
+dvt0    = 2.8985
+dvt1    = 0.24
+dvt2    = -0.016
+dvt0w   = 0
+dvt1w   = 5300000
+dvt2w   = -0.032
+dsub    = 0.366
+minv    = -0.1
+voffl   = 0
+dvtp0   = 0
+dvtp1   = 0
+lpe0    = 3.25e-008
+lpeb    = 0
+vbm     = -3
+xj      = 1e-007
+ngate   = 6e+019
+ndep    = 5.6e+017
+nsd     = 1e+020
+phin    = 0
+cdsc    = 0.00024
+cdscb   = 0
+cdscd   = 0
+cit     = 0
+voff    = -0.098
+nfactor = 0.8
+eta0    = 0.254
+etab    = -0.153
+vfb     = 0
* Mobility parameters
+u0      = 0.009
+ua      = -1.2e-010
+ub      = 1.8e-018
+uc      = 8.6e-011
+eu      = 1.67
+vsat    = 90000
* Output resistance parameters
+a0      = 0.68
+ags     = 0.46
+a1      = 0
+a2      = 1
+b0      = 0
+b1      = 0
+keta    = -0.12
+dwg     = 0
+dwb     = 0
+pclm    = 0.326
+pdiblc1 = 0.148
+pdiblc2 = 0.000123
+pdiblcb = 0
+drout   = 0.56
+pvag    = 0
+delta   = 0.01
+pscbe1  = 6.74e+008
+pscbe2  = 1e-005
+fprout  = 0
+pdits   = 0
+pditsd  = 0
+pditsl  = 0
* RDSW parameters
+rsh     = 7
+rdsw    = 466
+rdswmin = 20
+prwg    = 0
+prwb    = 0
* GIDL parameters
+alpha0  = 0.00182
+alpha1  = 0
+beta0   = 43.7
+agidl   = 1.59e-011
+bgidl   = 1.39e+009
+cgidl   = 7.5
+egidl   = 0.101
* Gate capacitance parameters
+cgso    = 1.24e-010
+cgdo    = 1.24e-010
+cgbo    = 1e-013
+cgdl    = 4e-011
+cgsl    = 4e-011
+clc     = 1e-007
+cle     = 0.6
+cf      = 0
+ckappas = 0.6
+ckappad = 0.6
+vfbcv   = -1
+acde    = 1
+moin    = 15
+noff    = 2
+voffcv  = 0
+tvoff   = 0.0032
* Temperature coefficients
+kt1     = -0.274
+kt1l    = 0
+kt2     = -0.0131
+ute     = -1
+ua1     = 1.5e-009
+ub1     = -2.99e-018
+uc1     = -4.3e-011
+prt     = 0
+at      = 12000
* Noise parameters
+fnoimod = 1
+tnoimod = 0
+em      = 4.1e+007
+ef      = 1.12
+noia    = 3.2e+041
+noib    = 1.8e+020
+noic    = 3.0e+009
+ntnoi   = 1
* Source/Drain junction parameters
+jss     = 1.65e-007
+jsws    = 2.1e-013
+jswgs   = 0
+njs     = 1
+ijthsfwd= 0.1
+ijthsrev= 0.1
+jtss    = 1e-011
+jtssws  = 1e-011
+jtsswgs = 1e-011
+njts    = 20
+njtssw  = 20
+njtsswg = 20
+vtss    = 10
+vtssws  = 10
+vtsswgs = 10
+pbs     = 0.699
+cjs     = 0.00094
+mjs     = 0.321
+pbsws   = 0.802
+cjsws   = 1.51e-010
+mjsws   = 0.05
+pbswgs  = 0.65
+cjswgs  = 4.79e-010
+mjswgs  = 0.22
+tpb     = 0.00169
+tcj     = 0.00099
+tpbsw   = 0.0052
+tcjsw   = 0.00063
+tpbswg  = 0.00074
+tcjswg  = 0.00093
+xtis    = 3
* Layout-dependent parameters
+dmcg    = 1.5e-007
+saref   = 4.4e-007
+sbref   = 4.4e-007
+kvth0   = 0
+ku0     = 0
+kvsat   = 0

* End of file