Version 4
SHEET 1 2000 680
WIRE 624 -80 592 -80
WIRE 1072 -80 624 -80
WIRE 1072 -48 1072 -80
WIRE 800 -32 752 -32
WIRE 1008 -32 800 -32
WIRE 592 0 592 -80
WIRE 1168 0 1152 0
WIRE 1232 0 1168 0
WIRE 1264 0 1232 0
WIRE 752 16 752 -32
WIRE 944 32 896 32
WIRE 1008 32 944 32
WIRE 896 80 896 32
WIRE 1072 80 1072 48
WIRE 1264 96 1264 64
WIRE 592 160 592 80
WIRE 752 160 752 96
WIRE 752 160 592 160
WIRE 896 160 752 160
WIRE 592 192 592 160
FLAG 592 192 0
FLAG 624 -80 vdd
FLAG 1232 0 OUT
FLAG 1072 80 0
FLAG 1264 96 0
FLAG 800 -32 INP
FLAG 944 32 INM
SYMBOL voltage 592 -16 R0
WINDOW 123 0 0 Left 0
WINDOW 39 0 0 Left 0
SYMATTR InstName VDD
SYMATTR Value {VDD}
SYMBOL cap 1248 0 R0
SYMATTR InstName CL
SYMATTR Value 20p
SYMBOL EuroSYM\\voltage3 752 0 R0
WINDOW 0 24 16 Left 2
WINDOW 3 24 104 Left 2
WINDOW 123 24 132 Left 2
WINDOW 39 0 0 Left 0
SYMATTR InstName VINP
SYMATTR Value {VCM}
SYMATTR Value2 AC 0.5
SYMBOL EuroSYM\\voltage3 896 64 R0
WINDOW 0 24 16 Left 2
WINDOW 3 24 104 Left 2
WINDOW 123 24 132 Left 2
WINDOW 39 0 0 Left 0
SYMATTR InstName VINM
SYMATTR Value {VCM}
SYMATTR Value2 AC -0.5
SYMBOL circuit9_2stageOTA 1040 0 R0
SYMATTR InstName X1
TEXT 120 -192 Left 2 !.temp 27\n.param VDD=3.3\n.param VCM=1.65
TEXT 120 -280 Left 2 !.lib 'C:\\Users\\Moustafa\\Documents\\papers and confrences\\ETECOM 2025\\GitHub\\analog-circuit-llm-benchmark\\reference\\GF180nm_sm141064_simplified.lib'
TEXT 120 -96 Left 2 ;.ac dec 200 1 1e9
TEXT 120 -72 Left 2 !.op
