Version 4
SHEET 1 1452 680
WIRE -96 -272 -112 -272
WIRE -48 -272 -96 -272
WIRE 256 -272 -48 -272
WIRE 304 -272 256 -272
WIRE 640 -272 304 -272
WIRE 640 -224 640 -272
WIRE -48 -176 -48 -272
WIRE 256 -176 256 -272
WIRE 32 -160 0 -160
WIRE 208 -160 32 -160
WIRE -96 -128 -96 -272
WIRE -48 -128 -96 -128
WIRE 304 -128 304 -272
WIRE 304 -128 256 -128
WIRE 32 -80 32 -160
WIRE 32 -80 -48 -80
WIRE 640 -64 640 -144
WIRE 768 -64 640 -64
WIRE 256 -32 256 -80
WIRE 288 -32 256 -32
WIRE 320 -32 288 -32
WIRE 352 -32 320 -32
WIRE 448 -32 432 -32
WIRE 464 -32 448 -32
WIRE 640 -32 640 -64
WIRE 640 -32 528 -32
WIRE -48 -16 -48 -80
WIRE 640 -16 640 -32
WIRE -48 16 -48 -16
WIRE 256 16 256 -32
WIRE 672 32 640 32
WIRE 96 64 -48 64
WIRE 256 64 96 64
WIRE 320 64 320 -32
WIRE 592 64 320 64
WIRE -96 96 -128 96
WIRE 336 96 304 96
WIRE -48 144 -48 112
WIRE 96 144 -48 144
WIRE 112 144 96 144
WIRE 256 144 256 112
WIRE 256 144 112 144
WIRE 96 176 96 144
WIRE 96 272 96 256
WIRE 640 272 640 80
WIRE 640 272 96 272
WIRE 672 272 672 32
WIRE 672 272 640 272
WIRE 96 288 96 272
FLAG -48 -16 nd1
FLAG 112 144 ntail
FLAG -128 96 INP
IOPIN -128 96 In
FLAG 336 96 INM
IOPIN 336 96 In
FLAG 768 -64 OUT
IOPIN 768 -64 Out
FLAG -112 -272 VDD
IOPIN -112 -272 BiDir
FLAG 96 288 VSS
IOPIN 96 288 BiDir
FLAG 96 64 VSS
FLAG 448 -32 NCZ
FLAG 288 -32 n1
DATAFLAG 656 -64 ""
DATAFLAG 544 64 ""
SYMBOL nmos4 -96 16 R0
SYMATTR InstName M1
SYMATTR Value nmos_3p3
SYMATTR Value2 l=0.6u w=60u
SYMBOL EuroSYM\\pmos4 0 -80 R180
WINDOW 0 56 32 Left 2
WINDOW 3 56 72 Left 2
SYMATTR InstName M3
SYMATTR Value pmos_3p3
SYMATTR Value2 l=0.6u w=30u
SYMBOL current 96 176 R0
WINDOW 123 0 0 Left 0
WINDOW 39 0 0 Left 0
SYMATTR InstName ITAIL
SYMATTR Value 20µ
SYMBOL cap 464 -48 M90
WINDOW 0 0 32 VBottom 2
WINDOW 3 32 32 VTop 2
SYMATTR InstName CC
SYMATTR Value 2p
SYMBOL res 336 -48 M90
WINDOW 0 0 56 VBottom 2
WINDOW 3 32 56 VTop 2
SYMATTR InstName RZ
SYMATTR Value 1.5k
SYMBOL nmos4 304 16 M0
SYMATTR InstName M2
SYMATTR Value nmos_3p3
SYMATTR Value2 l=0.6u w=60u
SYMBOL EuroSYM\\pmos4 208 -80 M180
WINDOW 0 56 32 Left 2
WINDOW 3 56 72 Left 2
SYMATTR InstName M4
SYMATTR Value pmos_3p3
SYMATTR Value2 l=0.6u w=30u
SYMBOL current 640 -224 R0
WINDOW 123 0 0 Left 0
WINDOW 39 0 0 Left 0
SYMATTR InstName I2
SYMATTR Value 80µ
SYMBOL nmos4 592 -16 R0
SYMATTR InstName M6
SYMATTR Value nmos_3p3
SYMATTR Value2 l=1u w=40u
TEXT -800 -352 Left 2 !.lib 'C:\\Users\\Moustafa\\Documents\\papers and confrences\\ETECOM 2025\\GitHub\\analog-circuit-llm-benchmark\\reference\\GF180nm_sm141064_simplified.lib'
